[General]
debug-on-errors = true
print-undisposed = false 
sim-time-limit = 250s

network = Scenario

*.configurator.networkAddress = "192.168.2.0"

#Traffic Configuration
*.server.numUdpApps = 1
*.server.udpApp[0].typename = "UDPSink"
*.server.udpApp[0].localPort = 123

*.client*.numUdpApps = 1
*.client*.udpApp[0].typename = "UDPBasicApp"
*.client*.udpApp[0].localPort = 100
*.client*.udpApp[0].destPort = 123
*.client*.udpApp[0].messageLength = 1250 bytes
*.client*.udpApp[0].sendInterval = 0.2s
*.client*.udpApp[0].destAddresses = "server"

[Config Simple_attack]
extends = General
**.attackConfigurationFile = "simple_attack.xml"

[Config Disable]
extends = General
**.attackConfigurationFile = "disable.xml"
